data_image0
_chemical_formula_structural       Zr2Hf
_chemical_formula_sum              "Zr2 Hf1"
_cell_length_a       2.8655
_cell_length_b       2.8655
_cell_length_c       7.21134
_cell_angle_alpha    97.6114
_cell_angle_beta     97.6114
_cell_angle_gamma    109.471

_space_group_name_H-M_alt    "P 1"
_space_group_IT_number       1

loop_
  _space_group_symop_operation_xyz
  'x, y, z'

loop_
  _atom_site_type_symbol
  _atom_site_label
  _atom_site_symmetry_multiplicity
  _atom_site_fract_x
  _atom_site_fract_y
  _atom_site_fract_z
  _atom_site_occupancy
  Zr  Zr1       1.0  0.00000  0.00000  0.00000  1.0000
  Zr  Zr2       1.0  0.66667  0.66667  0.33333  1.0000
  Hf  Hf1       1.0  0.33333  0.33333  0.66667  1.0000
