data_image0
_chemical_formula_structural       ZrNbHfNb2
_chemical_formula_sum              "Zr1 Nb3 Hf1"
_cell_length_a       2.8655
_cell_length_b       4.67934
_cell_length_c       7.21134
_cell_angle_alpha    108.932
_cell_angle_beta     97.6114
_cell_angle_gamma    90

_space_group_name_H-M_alt    "P 1"
_space_group_IT_number       1

loop_
  _space_group_symop_operation_xyz
  'x, y, z'

loop_
  _atom_site_type_symbol
  _atom_site_label
  _atom_site_symmetry_multiplicity
  _atom_site_fract_x
  _atom_site_fract_y
  _atom_site_fract_z
  _atom_site_occupancy
  Zr  Zr1       1.0  0.00000  0.00000  0.00000  1.0000
  Nb  Nb1       1.0  0.40000  0.60000  0.20000  1.0000
  Hf  Hf1       1.0  0.80000  0.20000  0.40000  1.0000
  Nb  Nb2       1.0  0.20000  0.80000  0.60000  1.0000
  Nb  Nb3       1.0  0.60000  0.40000  0.80000  1.0000
